0        N A S T R A N    E X E C U T I V E    C O N T R O L    E C H O                                                             
0                                                                                                                                   
                                                                                                                                    
                                                                                                                                    
     SOL 103                                                                                 
     CEND                                                                                    
1    INBOARD                                                                   JUNE  10, 2015  NX NASTRAN  5/ 1/14   PAGE     3
                                                                                                                                    
0                                                                                                                                   
0                                        C A S E    C O N T R O L    E C H O                                                        
                 COMMAND                                                                                                            
                 COUNT                                                                                                              
                  1                                                                                              
                  2      TITLE = INBOARD                                                                         
                  3      ECHO = SORT                                                                             
                  4                                                                                              
                  5      WEIGHTCHECK(SET=ALL) = YES                                                              
                  6      GROUNDCHECK(SET=ALL,DATAREC=YES) = YES                                                  
                  7                                                                                              
                  8      METHOD=1                                                                                
                  9                                                                                              
                 10      SET 1 = 4,16                                                                            
                 11      DISPLACEMENT(PLOT) = 1                                                                  
                 12      SET 2 = 10,97                                                                           
                 13      FORCE(PLOT) = 2                                                                         
                 14                                                                                              
                 15      EXTSEOUT(ASMBULK,EXTBULK,EXTID=102,MATOP4=102)                                          
                 16                                                                                              
                 17      BEGIN BULK                                                                              
 *** USER WARNING MESSAGE 324 (XSORSO)
     BLANK ENTRIES ENCOUNTERED WILL BE IGNORED.
0                             INPUT BULK DATA ENTRY COUNT =         120
1    INBOARD                                                                   JUNE  10, 2015  NX NASTRAN  5/ 1/14   PAGE     4
                                                                                                                                    
0                                                                                                                                   
0                                                 S O R T E D   B U L K   D A T A   E C H O                                         
                 ENTRY                                                                                                              
                 COUNT        .   1  ..   2  ..   3  ..   4  ..   5  ..   6  ..   7  ..   8  ..   9  ..  10  .                      
                    1-        BSET1   123456  3       11      19      27                                      
                    2-        CBAR    3       100     4       5       13                                      
                    3-        CBAR    4       100     5       6       13                                      
                    4-        CBAR    5       100     6       7       13                                      
                    5-        CBAR    6       100     7       8       13                                      
                    6-        CBAR    9       100     12      13      5                                       
                    7-        CBAR    10      100     13      14      5                                       
                    8-        CBAR    11      100     14      15      5                                       
                    9-        CBAR    12      100     15      16      5                                       
                   10-        CBAR    15      100     20      21      29                                      
                   11-        CBAR    16      100     21      22      29                                      
                   12-        CBAR    17      100     22      23      29                                      
                   13-        CBAR    18      100     23      24      29                                      
                   14-        CBAR    21      100     28      29      21                                      
                   15-        CBAR    22      100     29      30      21                                      
                   16-        CBAR    23      100     30      31      21                                      
                   17-        CBAR    24      100     31      32      21                                      
                   18-        CBAR    28      100     4       12      150.    150.    300.                    
                   19-        CBAR    29      100     5       13      150.    150.    300.                    
                   20-        CBAR    30      100     6       14      150.    150.    300.                    
                   21-        CBAR    31      100     7       15      150.    150.    300.                    
                   22-        CBAR    32      100     8       16      150.    150.    300.                    
                   23-        CBAR    36      100     20      28      150.    150.    0.                      
                   24-        CBAR    37      100     21      29      150.    150.    0.                      
                   25-        CBAR    38      100     22      30      150.    150.    0.                      
                   26-        CBAR    39      100     23      31      150.    150.    0.                      
                   27-        CBAR    40      100     24      32      150.    150.    0.                      
                   28-        CBAR    44      100     4       28      150.    0.      150.                    
                   29-        CBAR    45      100     5       29      150.    0.      150.                    
                   30-        CBAR    46      100     6       30      150.    0.      150.                    
                   31-        CBAR    47      100     7       31      150.    0.      150.                    
                   32-        CBAR    48      100     8       32      150.    0.      150.                    
                   33-        CBAR    52      100     12      20      150.    300.    150.                    
                   34-        CBAR    53      100     13      21      150.    300.    150.                    
                   35-        CBAR    54      100     14      22      150.    300.    150.                    
                   36-        CBAR    55      100     15      23      150.    300.    150.                    
                   37-        CBAR    56      100     16      24      150.    300.    150.                    
                   38-        CBAR    60      100     4       20      28                                      
                   39-        CBAR    61      100     13      29      21                                      
                   40-        CBAR    62      100     6       22      30                                      
                   41-        CBAR    63      100     15      31      23                                      
                   42-        CBAR    64      100     8       24      32                                      
                   43-        CBAR    67      100     5       12      13                                      
                   44-        CBAR    68      100     5       14      13                                      
                   45-        CBAR    69      100     7       14      15                                      
                   46-        CBAR    70      100     7       16      15                                      
                   47-        CBAR    73      100     13      20      21                                      
                   48-        CBAR    74      100     13      22      21                                      
                   49-        CBAR    75      100     15      22      23                                      
                   50-        CBAR    76      100     15      24      23                                      
1    INBOARD                                                                   JUNE  10, 2015  NX NASTRAN  5/ 1/14   PAGE     5
                                                                                                                                    
0                                                                                                                                   
0                                                 S O R T E D   B U L K   D A T A   E C H O                                         
                 ENTRY                                                                                                              
                 COUNT        .   1  ..   2  ..   3  ..   4  ..   5  ..   6  ..   7  ..   8  ..   9  ..  10  .                      
                   51-        CBAR    79      100     21      28      20                                      
                   52-        CBAR    80      100     21      30      22                                      
                   53-        CBAR    81      100     23      30      22                                      
                   54-        CBAR    82      100     23      32      24                                      
                   55-        CBAR    85      100     4       29      5                                       
                   56-        CBAR    86      100     6       29      5                                       
                   57-        CBAR    87      100     6       31      7                                       
                   58-        CBAR    88      100     8       31      7                                       
                   59-        CBAR    89      101     33      34      150.    330.    150.                    
                   60-        CBAR    90      102     3       33      870.    150.    150.                    
                   61-        CBAR    91      102     11      33      870.    150.    150.                    
                   62-        CBAR    92      102     19      33      870.    150.    150.                    
                   63-        CBAR    93      102     27      33      870.    150.    150.                    
                   64-        CBAR    94      102     4       34      1200.   150.    150.                    
                   65-        CBAR    95      102     12      34      1200.   150.    150.                    
                   66-        CBAR    96      102     20      34      1200.   150.    150.                    
                   67-        CBAR    97      102     28      34      1200.   150.    150.                    
                   68-        CORD2R  10      0       0.0     0.0     0.0     1.0     0.0     0.0      0000001
                   69-        +00000010.0     1.0     0.0                                              0000002
                   70-        EIGRL   1               50.0                                                    
                   71-        GRID    3       0       600.    0.      300.    0                               
                   72-        GRID    4       0       900.    0.      300.    0                               
                   73-        GRID    5       0       1200.   0.      300.    0                               
                   74-        GRID    6       0       1500.   0.      300.    0                               
                   75-        GRID    7       0       1800.   0.      300.    0                               
                   76-        GRID    8       0       2100.   0.      300.    0                               
                   77-        GRID    11      0       600.    300.    300.    10                              
                   78-        GRID    12      0       900.    300.    300.    0                               
                   79-        GRID    13      0       1200.   300.    300.    0                               
                   80-        GRID    14      0       1500.   300.    300.    0                               
                   81-        GRID    15      0       1800.   300.    300.    0                               
                   82-        GRID    16      0       2100.   300.    300.    0                               
                   83-        GRID    19      0       600.    300.    0.      0                               
                   84-        GRID    20      0       900.    300.    0.      0                               
                   85-        GRID    21      0       1200.   300.    0.      0                               
                   86-        GRID    22      0       1500.   300.    0.      0                               
                   87-        GRID    23      0       1800.   300.    0.      0                               
                   88-        GRID    24      0       2100.   300.    0.      0                               
                   89-        GRID    27      0       600.    0.      0.      0                               
                   90-        GRID    28      0       900.    0.      0.      0                               
                   91-        GRID    29      0       1200.   0.      0.      0                               
                   92-        GRID    30      0       1500.   0.      0.      0                               
                   93-        GRID    31      0       1800.   0.      0.      0                               
                   94-        GRID    32      0       2100.   0.      0.      0                               
                   95-        GRID    33      0       630.    150.    150.    0                               
                   96-        GRID    34      0       870.    150.    150.    0                               
                   97-        MAT1    300     6.894+7 2.62+7          2.74-6                                  
                   98-        MAT1    301     6.894+7 2.62+7          2.74-6                                  
                   99-        MAT1    302     6.894+7 2.62+7          2.74-6                                  
                  100-        MAT1    400     6.894+7 2.62+7          2.74-6                                  
1    INBOARD                                                                   JUNE  10, 2015  NX NASTRAN  5/ 1/14   PAGE     6
                                                                                                                                    
0                                                                                                                                   
0                                                 S O R T E D   B U L K   D A T A   E C H O                                         
                 ENTRY                                                                                                              
                 COUNT        .   1  ..   2  ..   3  ..   4  ..   5  ..   6  ..   7  ..   8  ..   9  ..  10  .                      
                  101-        MAT1    401     6.894+7 2.62+7          2.74-6                                  
                  102-        PARAM   AUTOSPC YES                                                             
                  103-        PARAM   COUPMASS1                                                               
                  104-        PBAR    100     300     12.566  12.566  12.566  25.133                          
                  105-        PBAR    101     301     201.06  3217.0  3217.0  6434.0                          
                  106-        PBAR    102     302     201.06  3217.0  3217.0  6434.0                          
                  107-        PBAR    200     400     28.274  63.617  63.617  127.23                          
                  108-        PBAR    201     401     28.274  63.617  63.617  127.23                          
                  109-        QSET1           2995001 THRU    2995008                                         
                  110-        SPOINT  2995001 THRU    2995008                                                 
                  111-        TABLED1*            4000                                                 0000003
                  112-        *0000003                                                                 0000004
                  113-        *0000004            1.00         1.00000            2.00         2.00000 0000005
                  114-        *0000005            3.00         3.00000ENDT                             0000006
                              ENDDATA 
0                       TOTAL COUNT=       111


                                        M O D E L   S U M M A R Y

                                   NUMBER OF GRID     POINTS   =       26
                                   NUMBER OF SPOINT   ENTRIES  =        1
 
 
                                   NUMBER OF CBAR     ELEMENTS =       66
 
1    INBOARD                                                                   JUNE  10, 2015  NX NASTRAN  5/ 1/14   PAGE     7
                                                                                                                                    
0                                                                                                                                   
0                                                                                                                                   
