MAT1    300     6.894+7 2.62+7          2.74-6
MAT1    301     6.894+7 2.62+7          2.74-6
MAT1    302     6.894+7 2.62+7          2.74-6
MAT1    400     6.894+7 2.62+7          2.74-6
MAT1    401     6.894+7 2.62+7          2.74-6
PARAM   AUTOSPC YES
PARAM   COUPMASS1
PBAR    100     300     12.566  12.566  12.566  25.133
        2.0     0.0     0.0     2.0     -2.0    0.0     0.0     -2.0
PBAR    101     301     201.06  3217.0  3217.0  6434.0
        8.0     8.0     8.0     8.0     -8.0    8.0     8.0     -8.0
PBAR    102     302     201.06  3217.0  3217.0  6434.0
        8.0     8.0     8.0     8.0     -8.0    8.0     8.0     -8.0
PBAR    200     400     28.274  63.617  63.617  127.23
        3.0     3.0     3.0     3.0     -3.0    3.0     3.0     -3.0
PBAR    201     401     28.274  63.617  63.617  127.23
        3.0     3.0     3.0     3.0     -3.0    3.0     3.0     -3.0
$
GRID           3       0    600.      0.    300.       0
GRID           4       0    900.      0.    300.       0
GRID           5       0   1200.      0.    300.       0
GRID           6       0   1500.      0.    300.       0
GRID           7       0   1800.      0.    300.       0
GRID           8       0   2100.      0.    300.       0
CORD2R  10      0       0.0     0.0     0.0     1.0     0.0     0.0
        0.0     1.0     0.0
GRID          11       0    600.    300.    300.      10
GRID          12       0    900.    300.    300.       0
GRID          13       0   1200.    300.    300.       0
GRID          14       0   1500.    300.    300.       0
GRID          15       0   1800.    300.    300.       0
GRID          16       0   2100.    300.    300.       0
GRID          19       0    600.    300.      0.       0
GRID          20       0    900.    300.      0.       0
GRID          21       0   1200.    300.      0.       0
GRID          22       0   1500.    300.      0.       0
GRID          23       0   1800.    300.      0.       0
GRID          24       0   2100.    300.      0.       0
GRID          27       0    600.      0.      0.       0
GRID          28       0    900.      0.      0.       0
GRID          29       0   1200.      0.      0.       0
GRID          30       0   1500.      0.      0.       0
GRID          31       0   1800.      0.      0.       0
GRID          32       0   2100.      0.      0.       0
GRID          33       0    630.    150.    150.       0
GRID          34       0    870.    150.    150.       0
CBAR           3     100       4       5      13
CBAR           4     100       5       6      13
CBAR           5     100       6       7      13
CBAR           6     100       7       8      13
CBAR           9     100      12      13       5
CBAR          10     100      13      14       5
CBAR          11     100      14      15       5
CBAR          12     100      15      16       5
CBAR          15     100      20      21      29
CBAR          16     100      21      22      29
CBAR          17     100      22      23      29
CBAR          18     100      23      24      29
CBAR          21     100      28      29      21
CBAR          22     100      29      30      21
CBAR          23     100      30      31      21
CBAR          24     100      31      32      21
CBAR          28     100       4      12    150.    150.    300.
CBAR          29     100       5      13    150.    150.    300.
CBAR          30     100       6      14    150.    150.    300.
CBAR          31     100       7      15    150.    150.    300.
$ ... 46 like lines cut

