NASTRAN SYSTEM(442)=-1,SYSTEM(319)=1
NASTRAN NLINES=100000

SOL SESTATIC
CEND
  TITLE = rdop2opg_1.dat
  ECHO = NONE
  OLOAD(PLOT) = ALL
SUBCASE 1001
  SUBTITLE = Load 111
  LOAD = 111
  SPC = 1
SUBCASE 1002
  SUBTITLE = Load 112
  LOAD = 112
  SPC = 1

BEGIN BULK

PARAM,PRGPST,YES
PARAM,POST,-1
PARAM,OGEOM,NO
PARAM,AUTOSPC,YES
PARAM,GRDPNT,0
PARAM,WTMASS,.00259

SPC1           1  123456       1

CORD2R        11       0      2.      .5     -.62.999445      .5-.633315+
+       1.9722761.054487-1.43173


FORCE        111      21       0      1.      5.      6.      0.
MOMENT       111      21       0      1.      0.      7.      8.
FORCE        111       5       0      1.      0.      0.     11.
MOMENT       111       5       0      1.      0.      0.     12.

MOMENT       112       1       0      1.    100.    200.    300.
FORCE        112       1       0      1.      0.      .2      0.
FORCE        112       8       0      1.     1.1     1.2     1.3

PBEAM          1       1.0153938 4.622-4 4.622-4      0.9.2421-4      0.+
+             0.    -.25     .25      0.      0.     .25    -.25      0.+
+           YESA      1.                                                +
+       .5309534.5309534

MAT1           1   2.9+71.0985+7     .32     .29   6.6-6     70.        +
+        215000. 240000. 156000.
MAT4           14.8611-4   38.64     .29                      1.

GRID           1       0      0.      0.      0.       0
GRID           2       0      1.      0.      0.       0
GRID           3       0      2.      0.      0.       0
GRID           4       0      3.      0.      0.       0
GRID           5       0      5.      0.      0.      11
GRID           6       0      6.      0.      0.       0
GRID           7       0      7.      0.      0.       0
GRID           8       0      8.      0.      0.       0
GRID          21       0      2.     1.5     1.5       0
GRID          22       0     2.1     -1.     -.5       0

CBEAM          1       1       1       2      0.      1.      0.
CBEAM          2       1       2       3      0.      1.      0.
CBEAM          3       1       3       4      0.      1.      0.
CBEAM          4       1       3      22      0.      1.      0.
CBEAM          5       1       3      21      0.      1.      0.
CBEAM          6       1       4       5      0.      1.      0.
CBEAM          7       1       5       6 .554487.8321924      0.
CBEAM          8       1       6       7      0.      1.      0.
CBEAM          9       1       7       8      0.      1.      0.

CONM2         10       1       0     10.      0.      0.      0.        +
+            20.      0.     22.      0.      0.     23.
CONM2         11      22       0     10.      0.      0.      0.        +
+            20.      0.     22.      0.      0.     23.
CONM2         12       5       0     10.      0.      0.      0.        +
+            20.      0.     22.      0.      0.     23.
CONM2         13       8       0     10.      0.      0.      0.        +
+            20.      0.     22.      0.      0.     23.
CONM2         14      21       0     10.      0.      0.      0.        +
+            20.      0.     22.      0.      0.     23.

ENDDATA
