NASTRAN SYSTEM(442)=-1,SYSTEM(319)=1
NASTRAN NLINES=100000

SOL SEMODES
CEND

ECHO = NONE
WEIGHTCHECK = YES $ OGPWG WILL NOT BE WRITTEN
DISPLACEMENT(PLOT) = ALL
METHOD = 1

BEGIN BULK

PARAM,PRGPST,YES
PARAM,POST,-1
PARAM,OGEOM,NO
PARAM,AUTOSPC,YES
PARAM,GRDPNT,0
PARAM,WTMASS,.00259

EIGRL          1                      18       0                    MASS

PBEAM          1       1.0153938 4.622-4 4.622-4      0.9.2421-4      0.+
+             0.    -.25     .25      0.      0.     .25    -.25      0.+
+           YESA      1.                                                +
+       .5309534.5309534


MAT1           1   2.9+7             .32     .29   6.6-6     70.        +
+        215000. 240000. 156000.
MAT4           14.8611-4   38.64     .29

GRID           1       0      0.      0.      0.       0
GRID           2       0      1.      0.      0.       0
GRID           3       0      2.      0.      0.       0
GRID           4       0      3.      0.      0.       0
GRID           5       0      5.      0.      0.       0
GRID           6       0      6.      0.      0.       0
GRID           7       0      7.      0.      0.       0
GRID           8       0      8.      0.      0.       0
GRID          21       0      2.     1.5     1.5       0
GRID          22       0     2.1     -1.     -.5       0

CBEAM          1       1       1       2      0.      1.      0.
CBEAM          2       1       2       3      0.      1.      0.
CBEAM          3       1       3       4      0.      1.      0.
CBEAM          4       1       3      22      0.      1.      0.
CBEAM          5       1       3      21      0.      1.      0.
CBEAM          6       1       4       5      0.      1.      0.
CBEAM          7       1       5       6      0.      1.      0.
CBEAM          8       1       6       7      0.      1.      0.
CBEAM          9       1       7       8      0.      1.      0.

CONM2         10       1       0     10.      0.      0.      0.        +
+            20.      0.     22.      0.      0.     23.
CONM2         11      22       0     10.      0.      0.      0.        +
+            20.      0.     22.      0.      0.     23.
CONM2         12       5       0     10.      0.      0.      0.        +
+            20.      0.     22.      0.      0.     23.
CONM2         13       8       0     10.      0.      0.      0.        +
+            20.      0.     22.      0.      0.     23.
CONM2         14      21       0     10.      0.      0.      0.        +
+            20.      0.     22.      0.      0.     23.

ENDDATA
