$
$ FILE MANAGEMENT
$ -------------------------
$
INIT MASTER(S)  $ delete .MASTER and .DBALL files on exit
$ NAS2CAM op2/op4 files:
assign output2 = 'nas2cam_rbe3_nx9.op2', status=new,
                 unit=29,delete $
assign output4 = 'nas2cam_rbe3_nx9.op4', status=new,
                 unit=30,form=unformatted,delete $
$
$ END FILE MANAGEMENT SECTION
$
DIAG    8,47
SOL     103
echooff
include '/loads/nx_dmaps/v9/nas2cam_103.v9'
include '/loads/nx_dmaps/v9/nas2cam_subdmap.v9'
INCLUDE '/loads/nx_dmaps/v9/getqpart.v9'
INCLUDE '/loads/nx_dmaps/v9/dbdalter.v9'
echoon
$
CEND
$
TITLE= MAKE GM MATRIX TO TEST N2Y.FORMRBE3()
$
ECHO = SORTED
$
METHOD = 1
$
BEGIN BULK
$-------------------------------------------------------------------
$ NAS2CAM input:
PARAM,DBDICT,0
PARAM,CSEID,0
$PARAM,RMCSET,1
$PARAM,PRFMODES,1
$
$ TO GENERATE GRAVITY FORCE, SET GRAVDIR EQUAL TO GRAVITY DIRECTION
$  AND SET THE GRAVITY FIELD:
$
$PARAM,GRAVDIR,1
$PARAM,GRAVFELD,-386.1
$
$ $ TO GET THE "GOT" MATRIX FOR SPECIFIED SUPERELEMENTS:
$ DTI,TGOT,1,50  $ WANT GOT FOR SE 50 ONLY
$
$ DTI,TMGG,1,50
$ DTI,TKGG,1,50
$ DTI,TRBG,1,50
$
$
$DTI,TMAA,1,141,142,143,144,145,0
$DTI,TKAA,1,141,142,143,144,145,0
$DTI,TMAA,1,0
$
$ DTI,TKAA,1,0
$ DTI,TGOT,1,100
$ DTI,TGOQ,1,100
DTI,TGM,1,0
$DTI,TPHG,1,0
$param,pbaa,1
$param,pbhh,1
param,pdrg,1
param,grdpnt,124
$
$-------------------------------------------------------------------
$PARAM,POST,-1

$
$ SUPORT,888888,123456
PARAM,USETPRT,0
$
$ CONM1,1,888888,,10.0
$
EIGR,1,MGIV,0.,1.
$

$1111111222222223333333344444444555555556666666677777777888888889999999900000000
CORD2C  1       0       0.0     0.0     0.0     0.0     0.0     1.0
        1.0     0.0     0.0
$
CORD2R  2       0       0.0     0.0     0.0     1.0     0.0     0.0
        0.0     1.0     0.0

CORD2C   8      7       9.97    12.0    0.456   -450.0  -13.0   21.5
        -1.0    -81.0   4.0     

CORD2S   7      1       4.0     9.97    12.0    0.456   -450.0  -13.0
        21.5    -1.0    -81.0

GRID,100,1,25.0,0.0,0.0,1
GRID,200,1,25.0,120.0,0.0,7

GRID,300,1,25.0,240.0,0.0
GRID,400,2,0.0,0.0,0.0,2
$
$1111111222222223333333344444444555555556666666677777777888888889999999900000000
$RBE3    1               400     1       1.0     123     100     2.5
$        1       200     1.0     23      200     10.0    2       300
$        1.0     3       300
$RBE3    1111            400     123456  1.0     123     100     200
$        300
$
$1111111222222223333333344444444555555556666666677777777888888889999999900000000

CORD2R   9      8       12.0    0.456   -450.0  -13.0   21.5    -1.0
        -81.0   4.0     9.97

CORD2R  10      9       12.0    0.456   -450.0  -13.0   21.5    -1.0
        -81.0   4.0     9.97

CORD2C  11      7       19.97   22.0    0.456   -450.0  -13.0   21.5
        -1.0    -81.0   4.0     
CORD2S  12      7       4.0     99.7    12.0    0.888   -450.0  -13.0
        21.5    -11.0   -811.0

grid,1,7,5.,5.,5.,8
grid,2,8,6.,6.,6.,7
grid,3,9,0.,0.,0.,9

grid,101,10,3.,4.,5.,10
grid,102,11,3.,4.,5.,10
grid,103,12,3.,4.,5.,10

grid,111,10,3.,54.,5.,11
grid,112,11,3.,54.,5.,11
grid,113,12,3.,54.,5.,11

grid,121,10,31.,-4.,15.,12
grid,122,11,31.,-4.,15.,12
grid,123,12,31.,-4.,15.,12
grid,124,12,31.,4.,-165.,12

$1111111222222223333333344444444555555556666666677777777888888889999999900000000
RBE3    1               124     1346    2.6     123     100
        1.8     456     200
        UM      100     12      200     5       124     6

$RBE3    1               124     123456  2.3     123     100     2.5
$        123     200     12.0    23      300     .5      34      400
$        .4      456     1       2       3       5.5     136     101
$        102     103     4.2     123456  111     112     113     .05
$        25      121     122     123
$        UM      100     2       111     2346    122     5
$        UM      100     1       200     2       300     3       111
$        4       112     5       113     6

$1111111222222223333333344444444555555556666666677777777888888889999999900000000
$RBE3    1               124     123456  1.0     123456  2

CBAR,1,100,100,200,1.,0.,0.
CBAR,2,100,200,300,1.,0.,0.
CBAR,3,100,300,400,1.,0.,0.
CBAR,4,100,400,1,1.,0.,0.
CBAR,5,100,1,2,1.,0.,0.
CBAR,6,100,2,3,1.,0.,0.
CBAR,7,100,3,101,1.,0.,0.
CBAR,8,100,101,102,1.,0.,0.
CBAR,9,100,102,103,1.,0.,0.
CBAR,10,100,103,111,1.,0.,0.
CBAR,11,100,111,112,1.,0.,0.
CBAR,12,100,112,113,1.,0.,0.
CBAR,13,100,113,121,1.,0.,0.
CBAR,14,100,121,122,1.,0.,0.
CBAR,15,100,122,123,1.,0.,0.
$CBAR,16,100,123,124,1.,0.,0.

PBAR,100,300,12.566,12.566,12.566,25.133      $ TRUSS MEMBERS (4mm)
PBAR,101,301,201.06,3217.0,3217.0,6434.0      $ ALPHA JOINT (16mm)
$
MAT1,300,6.894+7,2.62+7,,2.74-6          $ MATERIAL PROPERTIES (ALUMINUM)
$                                          E    = 6.894e7
$                                          G    = 2.62e7
$                                          RHO  = 2.74e-6
$                                          UNITS: mm,kg,s
MAT1,301,6.894+7,2.62+7,,2.74-6
$
ENDDATA
